@<TRIPOS>MOLECULE
hsm/ligtest/1avn_A0_HSM.pdb
 8 8 0 0 0
SMALL
GASTEIGER

@<TRIPOS>ATOM
      1  N          0.4720    5.1050    9.7360 N.3   264  HSM264     -0.1310
      2  CA        -0.6460    5.9190   10.2390 C.3   264  HSM264      0.1153
      3  CB        -1.9700    5.5830    9.5670 C.3   264  HSM264      0.0639
      4  CG        -3.1410    4.9460   10.2360 C.2   264  HSM264      0.0645
      5  ND1       -3.4800    3.6270   10.0410 N.2   264  HSM264     -0.2310
      6  CD2       -4.0830    5.4150   11.0870 C.3   264  HSM264      0.1682
      7  CE1       -4.5450    3.2880   10.7310 C.2   264  HSM264      0.1939
      8  NE2       -4.9260    4.3630   11.3830 N.2   264  HSM264     -0.2440
@<TRIPOS>BOND
     1     3     4    1
     2     3     2    1
     3     1     2    1
     4     5     4    2
     5     5     7    1
     6     4     6    1
     7     7     8    2
     8     6     8    1
