@<TRIPOS>MOLECULE
hsm/ligtest/1kar_A0_HSM.pdb
 8 8 0 0 0
SMALL
GASTEIGER

@<TRIPOS>ATOM
      1  N         15.7110  113.5400   63.9780 N.3   502  HSM502     -0.1310
      2  CA        15.4380  112.3230   64.7500 C.3   502  HSM502      0.1156
      3  CB        14.0660  112.3780   65.4480 C.3   502  HSM502      0.0679
      4  CG        14.0460  111.7410   66.8100 C.ar  502  HSM502      0.0813
      5  ND1       13.6280  112.4360   67.9220 N.ar  502  HSM502     -0.2268
      6  CD2       14.3700  110.4910   67.2460 C.ar  502  HSM502      0.1154
      7  CE1       13.5480  111.5990   68.9540 C.ar  502  HSM502      0.1986
      8  NE2       14.0370  110.4240   68.5810 N.ar  502  HSM502     -0.2212
@<TRIPOS>BOND
     1     1     2    1
     2     2     3    1
     3     3     4    1
     4     4     6   ar
     5     4     5   ar
     6     6     8   ar
     7     5     7   ar
     8     8     7   ar
