@<TRIPOS>MOLECULE
hsm/ligtest/1u18_A0_HSM.pdb
 8 8 0 0 0
SMALL
GASTEIGER

@<TRIPOS>ATOM
      1  N         21.3720   31.6030   61.5450 N.3   401  HSM401     -0.1310
      2  CA        22.5430   30.8330   61.9650 C.3   401  HSM401      0.1156
      3  CB        23.5860   30.5920   60.8730 C.3   401  HSM401      0.0679
      4  CG        24.5510   29.4830   61.2210 C.ar  401  HSM401      0.0813
      5  ND1       25.8500   29.6570   61.5670 N.ar  401  HSM401     -0.2268
      6  CD2       24.3480   28.1060   61.2200 C.ar  401  HSM401      0.1154
      7  CE1       26.4440   28.4660   61.7600 C.ar  401  HSM401      0.1986
      8  NE2       25.5130   27.5290   61.5310 N.ar  401  HSM401     -0.2212
@<TRIPOS>BOND
     1     3     4    1
     2     3     2    1
     3     6     4   ar
     4     6     8   ar
     5     4     5   ar
     6     8     7   ar
     7     1     2    1
     8     5     7   ar
