@<TRIPOS>MOLECULE
hsm/ligtest/2qeb_B1_HSM.pdb
 8 8 0 0 0
SMALL
GASTEIGER

@<TRIPOS>ATOM
      1  N         -8.9170   17.7550   18.1890 N.3   145  HSM145     -0.1310
      2  CA        -8.2620   19.0540   18.2470 C.3   145  HSM145      0.1156
      3  CB        -9.2930   20.1840   18.2530 C.3   145  HSM145      0.0679
      4  CG        -8.6650   21.4250   17.6670 C.ar  145  HSM145      0.0813
      5  ND1       -9.2740   22.6160   17.4580 N.ar  145  HSM145     -0.2268
      6  CD2       -7.3440   21.5430   17.2520 C.ar  145  HSM145      0.1154
      7  CE1       -8.3610   23.4590   16.9210 C.ar  145  HSM145      0.1986
      8  NE2       -7.1780   22.8050   16.7960 N.ar  145  HSM145     -0.2212
@<TRIPOS>BOND
     1     8     7   ar
     2     8     6   ar
     3     7     5   ar
     4     6     4   ar
     5     5     4   ar
     6     4     3    1
     7     1     2    1
     8     2     3    1
