@<TRIPOS>MOLECULE
hsm/ligtest/2x45_C6_HSM.pdb
 8 8 0 0 0
SMALL
GASTEIGER

@<TRIPOS>ATOM
      1  N         -4.2840   -1.8460   14.6850 N.3   1160  HSM1160    -0.1310
      2  CA        -4.8880   -0.9070   15.6670 C.3   1160  HSM1160     0.1156
      3  CB        -3.8800    0.1160   16.2090 C.3   1160  HSM1160     0.0679
      4  CG        -4.4400    1.0540   17.2430 C.ar  1160  HSM1160     0.0813
      5  ND1       -4.9590    0.6680   18.4370 N.ar  1160  HSM1160    -0.2268
      6  CD2       -4.5010    2.4030   17.1850 C.ar  1160  HSM1160     0.1154
      7  CE1       -5.3080    1.7580   19.1010 C.ar  1160  HSM1160     0.1986
      8  NE2       -5.0330    2.8590   18.3520 N.ar  1160  HSM1160    -0.2212
@<TRIPOS>BOND
     1     1     2    1
     2     2     3    1
     3     3     4    1
     4     6     4   ar
     5     6     8   ar
     6     4     5   ar
     7     8     7   ar
     8     5     7   ar
