@<TRIPOS>MOLECULE
hsm/ligtest/3bu1_A0_HSM.pdb
 8 8 0 0 0
SMALL
GASTEIGER

@<TRIPOS>ATOM
      1  N         18.1750   22.9850    7.5870 N.3   301  HSM301     -0.1310
      2  CA        17.3610   23.1390    8.7890 C.3   301  HSM301      0.1156
      3  CB        16.2830   24.1870    8.5480 C.3   301  HSM301      0.0679
      4  CG        15.5020   24.4820    9.8120 C.ar  301  HSM301      0.0813
      5  ND1       16.0040   24.9860   10.9670 N.ar  301  HSM301     -0.2268
      6  CD2       14.1430   24.2900    9.9970 C.ar  301  HSM301      0.1154
      7  CE1       14.9900   25.1060   11.8470 C.ar  301  HSM301      0.1986
      8  NE2       13.8510   24.6830   11.2560 N.ar  301  HSM301     -0.2212
@<TRIPOS>BOND
     1     1     2    1
     2     3     2    1
     3     3     4    1
     4     4     6   ar
     5     4     5   ar
     6     6     8   ar
     7     5     7   ar
     8     8     7   ar
