@<TRIPOS>MOLECULE
hsm/ligtest/3rxh_A0_HSM.pdb
 8 8 0 0 0
SMALL
GASTEIGER

@<TRIPOS>ATOM
      1  N         -1.8620  -12.8960   18.3310 N.3     7  HSM7       -0.1310
      2  CA        -2.0360  -13.9460   17.3470 C.3     7  HSM7        0.1156
      3  CB        -1.4510  -13.5410   15.9970 C.3     7  HSM7        0.0679
      4  CG        -1.4540  -14.7300   15.0680 C.ar    7  HSM7        0.0813
      5  ND1       -2.3860  -15.7060   15.0300 N.ar    7  HSM7       -0.2268
      6  CD2       -0.5010  -15.0280   14.1030 C.ar    7  HSM7        0.1154
      7  CE1       -2.0330  -16.5910   14.0710 C.ar    7  HSM7        0.1986
      8  NE2       -0.8770  -16.1810   13.5060 N.ar    7  HSM7       -0.2212
@<TRIPOS>BOND
     1     8     7   ar
     2     8     6   ar
     3     7     5   ar
     4     6     4   ar
     5     5     4   ar
     6     4     3    1
     7     3     2    1
     8     2     1    1
