@<TRIPOS>MOLECULE
hsm/ligtest/5rus_A0_HSM.pdb
 17 17 0 0 0
SMALL
GASTEIGER

@<TRIPOS>ATOM
      1  N        -50.9140  -30.3050    8.2050 N.3   201  HSM201     -0.3296
      2  CA       -50.0910  -30.4180    7.0140 C.3   201  HSM201     -0.0015
      3  CB       -49.2690  -29.1540    6.7820 C.3   201  HSM201      0.0034
      4  CG       -48.4200  -29.2510    5.4910 C.ar  201  HSM201      0.0600
      5  ND1      -48.8350  -29.0790    4.2520 N.ar  201  HSM201     -0.2409
      6  CD2      -47.0910  -29.5720    5.4170 C.ar  201  HSM201      0.0243
      7  CE1      -47.8130  -29.2860    3.4300 C.ar  201  HSM201      0.0936
      8  NE2      -46.7460  -29.5710    4.1520 N.ar  201  HSM201     -0.3506
      9  H1       -50.7360  -29.5360    8.6170 H     201  HSM201      0.1182
     10  H2       -51.7730  -30.3260    7.9750 H     201  HSM201      0.1182
     11  HA1      -50.6620  -30.5730    6.2450 H     201  HSM201      0.0425
     12  HA2      -49.4860  -31.1640    7.1160 H     201  HSM201      0.0425
     13  HB1      -48.6780  -29.0180    7.5390 H     201  HSM201      0.0341
     14  HB2      -49.8690  -28.3960    6.7090 H     201  HSM201      0.0341
     15  HD2      -46.5300  -29.7500    6.1370 H     201  HSM201      0.0825
     16  HE1      -47.8350  -29.2090    2.5040 H     201  HSM201      0.1027
     17  HE2      -45.9600  -29.7380    3.8450 H     201  HSM201      0.1662
@<TRIPOS>BOND
     1    16     7    1
     2     7     8   ar
     3     7     5   ar
     4    17     8    1
     5     8     6   ar
     6     5     4   ar
     7     6     4   ar
     8     6    15    1
     9     4     3    1
    10    11     2    1
    11    14     3    1
    12     3     2    1
    13     3    13    1
    14     2    12    1
    15     2     1    1
    16    10     1    1
    17     1     9    1
