@<TRIPOS>MOLECULE
hsm/ligtest/8tgk_A0_HSM.pdb
 8 8 0 0 0
SMALL
GASTEIGER

@<TRIPOS>ATOM
      1  N        142.1950  141.6320  120.0080 N.3   601  HSM601     -0.1310
      2  CA       141.2170  142.6460  119.6580 C.3   601  HSM601      0.1153
      3  CB       139.8380  142.2130  120.1490 C.3   601  HSM601      0.0639
      4  CG       138.8660  143.3840  120.0300 C.2   601  HSM601      0.0645
      5  ND1      137.9580  143.5420  119.0940 N.2   601  HSM601     -0.2310
      6  CD2      138.7850  144.4460  120.8750 C.3   601  HSM601      0.1682
      7  CE1      137.3080  144.6890  119.3370 C.2   601  HSM601      0.1939
      8  NE2      137.8310  145.2370  120.4420 N.2   601  HSM601     -0.2440
@<TRIPOS>BOND
     1     5     7    1
     2     5     4    2
     3     7     8    2
     4     2     1    1
     5     2     3    1
     6     4     3    1
     7     4     6    1
     8     8     6    1
