@<TRIPOS>MOLECULE
hsm/ligtest/8yn2_R0_HSM.pdb
 8 8 0 0 0
SMALL
GASTEIGER

@<TRIPOS>ATOM
      1  N         92.8810  117.0160  123.2580 N.3   701  HSM701     -0.1310
      2  CA        94.0640  117.6990  122.7180 C.3   701  HSM701      0.1156
      3  CB        95.1000  117.8690  123.8260 C.3   701  HSM701      0.0679
      4  CG        96.3480  118.4880  123.2570 C.ar  701  HSM701      0.0813
      5  ND1       96.8080  119.7170  123.5190 N.ar  701  HSM701     -0.2268
      6  CD2       97.2000  117.9000  122.3980 C.ar  701  HSM701      0.1154
      7  CE1       97.9120  119.9140  122.8540 C.ar  701  HSM701      0.1986
      8  NE2       98.1920  118.8050  122.1410 N.ar  701  HSM701     -0.2212
@<TRIPOS>BOND
     1     8     6   ar
     2     8     7   ar
     3     6     4   ar
     4     2     1    1
     5     2     3    1
     6     7     5   ar
     7     4     5   ar
     8     4     3    1
