@<TRIPOS>MOLECULE
hsm/ligtest/8yn9_R0_HSM.pdb
 8 8 0 0 0
SMALL
GASTEIGER

@<TRIPOS>ATOM
      1  N         97.9430  125.5210  118.9750 N.3   701  HSM701     -0.1310
      2  CA        97.4770  124.6550  120.0620 C.3   701  HSM701      0.1156
      3  CB        96.4640  125.4100  120.9130 C.3   701  HSM701      0.0679
      4  CG        95.0730  125.0910  120.4390 C.ar  701  HSM701      0.0813
      5  ND1       94.4440  123.9190  120.5590 N.ar  701  HSM701     -0.2268
      6  CD2       94.2450  125.9470  119.8220 C.ar  701  HSM701      0.1154
      7  CE1       93.2550  124.0140  120.0350 C.ar  701  HSM701      0.1986
      8  NE2       93.0920  125.2640  119.5660 N.ar  701  HSM701     -0.2212
@<TRIPOS>BOND
     1     1     2    1
     2     8     6   ar
     3     8     7   ar
     4     6     4   ar
     5     7     5   ar
     6     2     3    1
     7     4     5   ar
     8     4     3    1
