@<TRIPOS>MOLECULE
hsm/ligtest/1jqd_A0_HSM.pdb
 8 8 0 0 0
SMALL
GASTEIGER

@<TRIPOS>ATOM
      1  N         44.4360  -31.9070   -7.5920 N.3   600  HSM600     -0.1310
      2  CA        43.5020  -32.0660   -6.4970 C.3   600  HSM600      0.1153
      3  CB        44.1200  -32.6740   -5.2540 C.3   600  HSM600      0.0639
      4  CG        43.1280  -33.4730   -4.4960 C.2   600  HSM600      0.0645
      5  ND1       42.7440  -34.7230   -4.9190 N.2   600  HSM600     -0.2310
      6  CD2       42.4450  -33.2150   -3.3530 C.3   600  HSM600      0.1682
      7  CE1       41.8620  -35.2030   -4.0530 C.2   600  HSM600      0.1939
      8  NE2       41.6670  -34.3060   -3.0950 N.2   600  HSM600     -0.2440
@<TRIPOS>BOND
     1     1     2    1
     2     2     3    1
     3     3     4    1
     4     5     4    2
     5     5     7    1
     6     4     6    1
     7     7     8    2
     8     6     8    1
