@<TRIPOS>MOLECULE
hsm/ligtest/1qft_B2_HSM.pdb
 8 8 0 0 0
SMALL
GASTEIGER

@<TRIPOS>ATOM
      1  N         59.9670   73.8980    7.7450 N.3   176  HSM176     -0.1310
      2  CA        59.9740   73.4920    6.3460 C.3   176  HSM176      0.1156
      3  CB        58.5520   73.4310    5.7640 C.3   176  HSM176      0.0679
      4  CG        58.5030   72.8110    4.3990 C.ar  176  HSM176      0.0813
      5  ND1       58.9710   71.5340    4.1540 N.ar  176  HSM176     -0.2268
      6  CD2       58.1780   73.3340    3.1880 C.ar  176  HSM176      0.1154
      7  CE1       58.9490   71.2990    2.8500 C.ar  176  HSM176      0.1986
      8  NE2       58.4730   72.3760    2.2380 N.ar  176  HSM176     -0.2212
@<TRIPOS>BOND
     1     8     7   ar
     2     8     6   ar
     3     7     5   ar
     4     6     4   ar
     5     5     4   ar
     6     4     3    1
     7     3     2    1
     8     2     1    1
