@<TRIPOS>MOLECULE
hsm/ligtest/1qft_B3_HSM.pdb
 8 8 0 0 0
SMALL
GASTEIGER

@<TRIPOS>ATOM
      1  N         56.4690   75.3620   -4.8650 N.3   177  HSM177     -0.1310
      2  CA        56.0890   73.9900   -4.5540 C.3   177  HSM177      0.1153
      3  CB        56.8550   73.0240   -5.4500 C.3   177  HSM177      0.0639
      4  CG        56.4630   71.5940   -5.2370 C.2   177  HSM177      0.0645
      5  ND1       55.2390   71.0920   -5.6370 N.2   177  HSM177     -0.2310
      6  CD2       57.0950   70.5850   -4.5900 C.3   177  HSM177      0.1682
      7  CE1       55.1300   69.8360   -5.2340 C.2   177  HSM177      0.1939
      8  NE2       56.2440   69.5020   -4.5910 N.2   177  HSM177     -0.2440
@<TRIPOS>BOND
     1     5     4    2
     2     5     7    1
     3     3     4    1
     4     3     2    1
     5     4     6    1
     6     7     8    2
     7     1     2    1
     8     8     6    1
