@<TRIPOS>MOLECULE
hsm/ligtest/2x45_C8_HSM.pdb
 8 8 0 0 0
SMALL
GASTEIGER

@<TRIPOS>ATOM
      1  N         -2.6430    9.4350   25.0460 N.3   1162  HSM1162    -0.1310
      2  CA        -2.6030    7.9930   25.4150 C.3   1162  HSM1162     0.1156
      3  CB        -3.4860    7.1080   24.5020 C.3   1162  HSM1162     0.0679
      4  CG        -2.9870    7.3050   23.0840 C.ar  1162  HSM1162     0.0813
      5  ND1       -1.7160    7.2470   22.7210 N.ar  1162  HSM1162    -0.2268
      6  CD2       -3.7020    7.5860   21.9880 C.ar  1162  HSM1162     0.1154
      7  CE1       -1.6420    7.4980   21.4090 C.ar  1162  HSM1162     0.1986
      8  NE2       -2.8630    7.6910   20.9500 N.ar  1162  HSM1162    -0.2212
@<TRIPOS>BOND
     1     8     7   ar
     2     8     6   ar
     3     7     5   ar
     4     6     4   ar
     5     5     4   ar
     6     4     3    1
     7     3     2    1
     8     1     2    1
