@<TRIPOS>MOLECULE
2x45_C7_HSM.pdb
 8 8 0 0 0
SMALL
GASTEIGER

@<TRIPOS>ATOM
      1  N         -8.3460    4.1650   21.8160 N.3   1161  HSM1161    -0.1310
      2  CA        -7.0280    3.5890   21.9410 C.3   1161  HSM1161     0.1156
      3  CB        -6.1320    4.6530   22.5310 C.3   1161  HSM1161     0.0679
      4  CG        -4.7920    4.0660   22.8830 C.ar  1161  HSM1161     0.0813
      5  ND1       -4.5240    3.5050   24.0550 N.ar  1161  HSM1161    -0.2268
      6  CD2       -3.6680    3.9820   22.1570 C.ar  1161  HSM1161     0.1154
      7  CE1       -3.2480    3.1040   24.0570 C.ar  1161  HSM1161     0.1986
      8  NE2       -2.6950    3.3940   22.9040 N.ar  1161  HSM1161    -0.2212
@<TRIPOS>BOND
     1     1     2    1
     2     2     3    1
     3     6     4   ar
     4     6     8   ar
     5     3     4    1
     6     4     5   ar
     7     8     7   ar
     8     5     7   ar
