@<TRIPOS>MOLECULE
hsm/ligtest/4xmf_A0_HSM.pdb
 8 8 0 0 0
SMALL
GASTEIGER

@<TRIPOS>ATOM
      1  N          6.8590   -9.2720   16.5500 N.pl3 202  HSM202     -0.1266
      2  CA         6.4010   -8.8330   15.3040 C.2   202  HSM202      0.1073
      3  CB         7.2730   -9.1430   14.1010 C.2   202  HSM202      0.0402
      4  CG         7.0300   -8.3410   12.8920 C.ar  202  HSM202      0.1036
      5  ND1        6.1590   -7.3360   12.7410 N.ar  202  HSM202     -0.2224
      6  CD2        7.6820   -8.5040   11.6470 C.ar  202  HSM202      0.1198
      7  CE1        6.2510   -6.8780   11.4850 C.ar  202  HSM202      0.1990
      8  NE2        7.1920   -7.6050   10.8170 N.ar  202  HSM202     -0.2209
@<TRIPOS>BOND
     1     8     7   ar
     2     8     6   ar
     3     7     5   ar
     4     6     4   ar
     5     5     4   ar
     6     4     3    1
     7     3     2    2
     8     2     1    1
