@<TRIPOS>MOLECULE
hsm/ligtest/6dyn_A0_HSM.pdb
 8 8 0 0 0
SMALL
GASTEIGER

@<TRIPOS>ATOM
      1  N          9.6440   -3.5380   14.7070 N.3   901  HSM901     -0.1310
      2  CA         8.5680   -2.6650   15.1540 C.3   901  HSM901      0.1153
      3  CB         7.2800   -3.4830   15.3400 C.3   901  HSM901      0.0639
      4  CG         6.2210   -3.0450   14.3180 C.2   901  HSM901      0.0645
      5  ND1        6.4560   -2.6350   13.0850 N.2   901  HSM901     -0.2310
      6  CD2        4.8640   -3.0190   14.5130 C.3   901  HSM901      0.1682
      7  CE1        5.2740   -2.3460   12.5070 C.2   901  HSM901      0.1939
      8  NE2        4.2980   -2.5920   13.4010 N.2   901  HSM901     -0.2440
@<TRIPOS>BOND
     1     7     5    1
     2     7     8    2
     3     5     4    2
     4     8     6    1
     5     4     6    1
     6     4     3    1
     7     1     2    1
     8     2     3    1
