@<TRIPOS>MOLECULE
hsm/ligtest/6fu4_D3_HSM.pdb
 8 8 0 0 0
SMALL
GASTEIGER

@<TRIPOS>ATOM
      1  N         41.2740   26.2450  150.3170 N.3   401  HSM401     -0.1310
      2  CA        41.8510   26.7140  149.0750 C.3   401  HSM401      0.1156
      3  CB        40.7490   27.2130  148.1430 C.3   401  HSM401      0.0679
      4  CG        40.2520   28.5750  148.6230 C.ar  401  HSM401      0.0813
      5  ND1       40.9450   29.4580  149.3060 N.ar  401  HSM401     -0.2268
      6  CD2       39.0140   29.0950  148.4130 C.ar  401  HSM401      0.1154
      7  CE1       40.1610   30.5190  149.5380 C.ar  401  HSM401      0.1986
      8  NE2       38.9690   30.2840  148.9750 N.ar  401  HSM401     -0.2212
@<TRIPOS>BOND
     1     3     4    1
     2     3     2    1
     3     6     4   ar
     4     6     8   ar
     5     4     5   ar
     6     8     7   ar
     7     2     1    1
     8     5     7   ar
