@<TRIPOS>MOLECULE
hsm/ligtest/7a5v_A0_HSM.pdb
 8 8 0 0 0
SMALL
GASTEIGER

@<TRIPOS>ATOM
      1  N        140.3120  170.8950  117.9000 N.3   5408  HSM5408    -0.1310
      2  CA       141.3660  171.7730  118.3780 C.3   5408  HSM5408     0.1153
      3  CB       142.4840  171.0180  118.9860 C.3   5408  HSM5408     0.0639
      4  CG       143.4230  171.8870  119.7630 C.2   5408  HSM5408     0.0645
      5  ND1      144.5700  172.3770  119.1820 N.2   5408  HSM5408    -0.2310
      6  CD2      143.4940  172.0730  121.1020 C.3   5408  HSM5408     0.1682
      7  CE1      145.2520  172.9310  120.1600 C.2   5408  HSM5408     0.1939
      8  NE2      144.6660  172.7280  121.3350 N.2   5408  HSM5408    -0.2440
@<TRIPOS>BOND
     1     1     2    1
     2     2     3    1
     3     3     4    1
     4     5     4    2
     5     5     7    1
     6     4     6    1
     7     7     8    2
     8     6     8    1
