@<TRIPOS>MOLECULE
hsm/ligtest/8jt5_A0_HSM.pdb
 8 8 0 0 0
SMALL
GASTEIGER

@<TRIPOS>ATOM
      1  N        131.8030  135.6800  123.1730 N.3   501  HSM501     -0.1310
      2  CA       131.0750  135.0860  122.0670 C.3   501  HSM501      0.1153
      3  CB       130.5570  133.7030  122.4530 C.3   501  HSM501      0.0639
      4  CG       130.0500  132.9140  121.2480 C.2   501  HSM501      0.0645
      5  ND1      130.7430  132.0590  120.5380 N.2   501  HSM501     -0.2310
      6  CD2      128.7980  132.9740  120.7190 C.3   501  HSM501      0.1682
      7  CE1      129.9590  131.5740  119.5700 C.2   501  HSM501      0.1939
      8  NE2      128.7520  132.1490  119.6920 N.2   501  HSM501     -0.2440
@<TRIPOS>BOND
     1     7     8    2
     2     7     5    1
     3     8     6    1
     4     5     4    2
     5     6     4    1
     6     4     3    1
     7     2     3    1
     8     2     1    1
