@<TRIPOS>MOLECULE
hsm/ligtest/8yn3_R0_HSM.pdb
 8 8 0 0 0
SMALL
GASTEIGER

@<TRIPOS>ATOM
      1  N         98.4540  111.2130   79.1320 N.3   701  HSM701     -0.1310
      2  CA        98.2070  112.3120   80.0500 C.3   701  HSM701      0.1153
      3  CB        96.7270  112.4350   80.3000 C.3   701  HSM701      0.0639
      4  CG        96.3100  113.8210   80.6690 C.2   701  HSM701      0.0645
      5  ND1       96.0960  114.7800   79.7090 N.2   701  HSM701     -0.2310
      6  CD2       96.0660  114.3540   81.8890 C.3   701  HSM701      0.1682
      7  CE1       95.7280  115.8620   80.3610 C.2   701  HSM701      0.1939
      8  NE2       95.6940  115.6520   81.6740 N.2   701  HSM701     -0.2440
@<TRIPOS>BOND
     1     1     2    1
     2     5     7    1
     3     5     4    2
     4     2     3    1
     5     3     4    1
     6     7     8    2
     7     4     6    1
     8     8     6    1
