@<TRIPOS>MOLECULE
hsm/ligtest/8yuu_R0_HSM.pdb
 8 8 0 0 0
SMALL
GASTEIGER

@<TRIPOS>ATOM
      1  N         92.8230  121.3020  111.0980 N.3   501  HSM501     -0.1310
      2  CA        91.5820  121.9290  111.5370 C.3   501  HSM501      0.1156
      3  CB        90.5930  120.8830  112.0510 C.3   501  HSM501      0.0679
      4  CG        89.1620  121.2830  111.7950 C.ar  501  HSM501      0.0813
      5  ND1       88.1750  120.3740  111.7990 N.ar  501  HSM501     -0.2268
      6  CD2       88.5980  122.4810  111.5390 C.ar  501  HSM501      0.1154
      7  CE1       87.0250  121.0620  111.5390 C.ar  501  HSM501      0.1986
      8  NE2       87.2460  122.3430  111.3740 N.ar  501  HSM501     -0.2212
@<TRIPOS>BOND
     1     1     2    1
     2     8     6   ar
     3     8     7   ar
     4     2     3    1
     5     6     4   ar
     6     7     5   ar
     7     4     5   ar
     8     4     3    1
